1.F
     RDKit          3D

 24 24  0  0  1  0  0  0  0  0999 V2000
  261.7640  267.8910  180.4090 C   0  0  2  0  0  0  0  0  0  0  0  0
  262.1350  266.6900  179.5620 C   0  0  1  0  0  0  0  0  0  0  0  0
  262.0640  267.0190  178.0730 C   0  0  1  0  0  0  0  0  0  0  0  0
  260.6390  267.3300  177.6160 C   0  0  2  0  0  0  0  0  0  0  0  0
  259.8680  268.0630  178.7270 C   0  0  1  0  0  0  0  0  0  0  0  0
  260.7950  268.8280  179.6840 C   0  0  1  0  0  0  0  0  0  0  0  0
  262.9500  268.5580  180.7710 O   0  0  0  0  0  0  0  0  0  0  0  0
  263.4260  266.2450  179.9180 O   0  0  0  0  0  0  0  0  0  0  0  0
  262.8940  268.1310  177.7910 O   0  0  0  0  0  0  0  0  0  0  0  0
  259.9780  266.1450  177.2990 O   0  0  0  0  0  0  0  0  0  0  0  0
  258.9720  268.9550  178.1380 O   0  0  0  0  0  0  0  0  0  0  0  0
  260.0080  269.5620  180.5830 O   0  0  0  0  0  0  0  0  0  0  0  0
  262.9420  269.6090  182.0960 P   0  0  1  0  0  0  0  0  0  0  0  0
  264.3700  270.1080  182.2540 O   0  0  0  0  0  0  0  0  0  0  0  0
  261.9200  270.6470  181.6700 O   0  0  0  0  0  0  0  0  0  0  0  0
  262.4820  268.7090  183.2650 O   0  0  0  0  0  0  0  0  0  0  0  0
  259.7930  265.5820  175.7090 P   0  0  1  0  0  0  0  0  0  0  0  0
  259.3980  266.8110  174.8900 O   0  0  0  0  0  0  0  0  0  0  0  0
  261.1930  265.0790  175.3760 O   0  0  0  0  0  0  0  0  0  0  0  0
  258.7150  264.5000  175.7560 O   0  0  0  0  0  0  0  0  0  0  0  0
  257.3950  268.5460  177.6730 P   0  0  2  0  0  0  0  0  0  0  0  0
  257.4110  267.0520  177.3510 O   0  0  0  0  0  0  0  0  0  0  0  0
  257.0750  269.4260  176.4650 O   0  0  0  0  0  0  0  0  0  0  0  0
  256.5870  268.9320  178.9090 O   0  0  0  0  0  0  0  0  0  0  0  0
  1  2  1  0
  1  6  1  0
  1  7  1  6
  2  3  1  0
  2  8  1  1
  3  4  1  0
  3  9  1  1
  4  5  1  0
  4 10  1  1
  5  6  1  0
  5 11  1  6
  6 12  1  1
  7 13  1  0
 10 17  1  0
 11 21  1  0
 13 14  2  0
 13 15  1  6
 13 16  1  0
 17 18  2  0
 17 19  1  6
 17 20  1  0
 21 22  2  0
 21 23  1  6
 21 24  1  0
M  END
$$$$
